13

 O   -0.665155211370    1.468459795529   -0.370780410893
 O   -0.134106721499    0.788071052176    1.732606114391
 N   -0.602502510247   -0.951180974497   -1.386004007594
 C    0.100869533190   -0.870552600581   -0.074077559203
 C   -0.244416981556    0.527057712196    0.550166055799
 C    1.628683009154   -0.989032287688   -0.274198837459
 H   -0.125397993916   -1.645365705565   -1.979385815689
 H   -0.226963066807   -1.646828914926    0.623859704386
 H   -0.728673989101    0.948646383760   -1.212430614218
 H    1.981623409086   -0.229965970534   -0.966179327020
 H    1.883004594400   -1.967268059843   -0.672669022327
 H    2.137944339955   -0.859559823540    0.675803897129
 H   -1.548544189069   -1.330225555685   -1.228401418599
