12

 C    1.386988952096    0.000000000000    0.000000000000
 C    0.693491778522    1.201141862779    0.000000000000
 C   -0.693491778522    1.201141862779    0.000000000000
 C   -1.386988952096   -0.000000000000    0.000000000000
 C   -0.693491778522   -1.201141862779    0.000000000000
 C    0.693491778522   -1.201141862779    0.000000000000
 H    2.469635297809    0.000000000000    0.000000000000
 H    1.234781674625    2.138733222239    0.000000000000
 H   -1.234781674625    2.138733222239    0.000000000000
 H   -2.469635297809   -0.000000000000    0.000000000000
 H   -1.234781674625   -2.138733222239    0.000000000000
 H    1.234781674625   -2.138733222239    0.000000000000
