14

 S   -2.533029916555   -0.100448399106   -0.363809143495
 O    2.512453029748    0.211802148465    0.906412450999
 O    2.025475850541   -0.516978274577   -1.191478325936
 N    0.006846392435    0.684920770746    1.538794388359
 C    0.133751668082   -0.218430923329    0.361654557705
 C    1.639376043728   -0.193055741893   -0.085192760829
 C   -0.800405193755    0.106326272629   -0.830306975419
 H   -0.828658355249    0.414080727121    2.077743603615
 H   -0.186346074508    1.640224856886    1.200330893661
 H   -0.074510363342   -1.233229261690    0.711919944941
 H    1.908235265521    0.479112619773    1.645337427122
 H   -0.530651508906   -0.554304940737   -1.652522081568
 H   -0.606140083607    1.126224723815   -1.160937650140
 H   -3.021906415562    0.274829333169   -1.542258550164
