9

 O    1.186215290575   -0.258604560833   -0.110115722639
 C   -1.300061079587   -0.236853717714    0.007490015370
 C    0.023035935885    0.562472747642    0.064272826791
 H   -2.146719009221    0.437359801723    0.092467242051
 H   -1.351104203654   -0.954758985337    0.821400141680
 H    0.069456080571    1.118897035594    1.008940044869
 H    1.146801408537   -0.894227405475    0.649399701488
 H    0.038325119330    1.295414534473   -0.747212126740
 H   -1.377537260817   -0.775532941393   -0.931846443653
