8

 C   -0.768313703554    0.022978498797    0.021334651559
 C    0.768313743786   -0.022978395993   -0.021334689140
 H    1.181677759285   -0.004122090797    0.982882413176
 H    1.163576747242    0.829240608900   -0.566464347676
 H    1.112506008857   -0.928531896410   -0.512434634929
 H   -1.163581344748   -0.829304004532    0.566361821423
 H   -1.112505429552    0.928475235640    0.512541026388
 H   -1.181674220115    0.004240923132   -0.982885830904
