9

 S   -0.993789631794   -0.280320493743   -0.295701493319
 C    1.760334504956    0.015006808887    0.203630198317
 C    0.376085689504    0.671390245758    0.390752354287
 H    1.808360532385   -0.942233838863    0.715189212678
 H    2.538984444122    0.654514457434    0.610318955010
 H    1.970292462750   -0.151871571848   -0.848714311423
 H    0.371439611668    1.636977516122   -0.109552792178
 H    0.214011783766    0.864663846426    1.450273436065
 H   -0.814263581960   -1.342022528807    0.486058526206
