6

 C   -0.631215913375   -0.008774217569   -0.167085348439
 C    0.631162837742    0.008742449623    0.167287327435
 H   -1.140953849145   -0.921708105258   -0.445329882433
 H   -1.234951124934    0.888929990558   -0.185293159932
 H    1.235266856347   -0.888741152251    0.184091720924
 H    1.141270080195    0.921897522448    0.444126392143
