23

 C   -3.338552395091    1.860791679259   -0.583935151885
 C   -1.847305671185    1.841934456092   -0.195126895788
 C   -1.238135680696    0.423604803429   -0.258464429572
 C    2.968176609831   -2.446313351170    0.394396797226
 C    0.865234762221   -1.012921522372    0.067744923408
 C    2.360081650277   -1.031386316571    0.457452904217
 C    0.256616592923    0.405565927608    0.131295164871
 H   -3.918114386831    1.231150788264    0.084319730481
 H   -3.735751537327    2.869943718416   -0.529416766903
 H   -3.476381853189    1.495876007416   -1.597214049071
 H   -1.293847197200    2.500643082292   -0.861587021030
 H   -1.733633741134    2.237025232190    0.812523486875
 H   -1.791933089248   -0.234818632507    0.407896522066
 H   -1.352263220597    0.028742488732   -1.266093356344
 H    0.370189551269    0.800769866130    1.139116920931
 H    0.809991473526    1.064453176383   -0.535367626654
 H    0.752224180819   -1.408442015932   -0.940006365399
 H    0.312403335341   -1.672141230275    0.734531226397
 H    2.473422296677   -0.636066495462    1.465322258081
 H    2.913257967300   -0.372369298413   -0.209338047994
 H    4.017696291616   -2.424909194434    0.673438185205
 H    2.449995536769   -3.118089463805    1.072378057541
 H    2.891787222737   -2.853230435143   -0.609617826463
