10

 N   -0.000000000000    0.000000000000    1.125411461203
 C    0.000000000000   -1.128100000000    0.315711461203
 C   -0.000000000000    1.128100000000    0.315711461203
 C   -0.000000000000    0.715900000000   -0.970588538797
 C    0.000000000000   -0.715900000000   -0.970588538797
 H   -0.000000000000    2.118100000000    0.746911461203
 H    0.000000000000   -2.118100000000    0.746911461203
 H   -0.000000000000    1.351100000000   -1.840688538797
 H    0.000000000000   -1.351100000000   -1.840688538797
 H   -0.000000000000    0.000000000000    2.145711461203
