26

 C    1.952563398866    0.170775629216   -0.002397583491
 C   -1.952565570077   -0.170826969620    0.003102389975
 C    0.484989886956    0.449023745921   -0.004099863116
 C   -0.484988618958   -0.449118389324    0.005249055996
 C    2.486301126226   -1.120001939168    0.002902431490
 C   -2.486254614035    1.119948445676    0.008822325041
 C    2.840138343381    1.249459834807   -0.006145647579
 C   -2.840198998510   -1.249471506533   -0.004744459110
 C    3.855741804413   -1.320721046638    0.004469681425
 C   -3.855695625684    1.320745338834    0.006185710267
 C    4.209779689488    1.049130529765   -0.004510911373
 C   -4.209826709815   -1.049061449669   -0.007577449607
 C    4.723378021555   -0.238507627414    0.000981528068
 C   -4.723362993132    0.238615779841   -0.002147514456
 H    0.239763118899    1.503271020665   -0.013798799722
 H   -0.239767594249   -1.503400444424    0.014209777239
 H    1.829053004319   -1.978407442329    0.005527805700
 H   -1.828959512053    1.978316116854    0.015972672289
 H    2.446577034848    2.257899303357   -0.010327734909
 H   -2.446666570783   -2.257907466238   -0.008711461082
 H    4.249524758824   -2.329219411383    0.008413426856
 H   -4.249433662983    2.329258624969    0.010810355188
 H    4.878729953197    1.900318288138   -0.007367575058
 H   -4.878838711614   -1.900183385398   -0.013827665481
 H    5.793869486553   -0.398810684283    0.002237407698
 H   -5.793841073119    0.398980075040   -0.004206174237
